/*--------------------------------*- C++ -*----------------------------------*\
  =========                 |
  \\      /  F ield         | OpenFOAM: The Open Source CFD Toolbox
   \\    /   O peration     | Website:  https://openfoam.org
    \\  /    A nd           | Version:  13
     \\/     M anipulation  |
\*---------------------------------------------------------------------------*/
FoamFile
{
    format      ascii;
    class       dictionary;
    object      psiuMulticomponentThermo;
}
// * * * * * * * * * * * * * * * * * * * * * * * * * * * * * * * * * * * * * //

type
(
    heheuPsiThermo
);

typeRenamed
(
    heheuPsiThermo psiuMulticomponentThermo
);

energy
(
    absoluteEnthalpy
    absoluteInternalEnergy
);

mixture
(
   homogeneousMixture
   leanInhomogeneousMixture
   inhomogeneousMixture
   inhomogeneousEGRMixture
);

transport
(
    const
    polynomial
    sutherland
);

thermo
(
    eConst
    ePolynomial
    ePower
    eTabulated
    hConst
    hPolynomial
    hPower
    hTabulated
    janaf
);

equationOfState
(
    PengRobinsonGas
    perfectGas
);

specie
(
    specie
);

codeOptions
#{
EXE_INC = \
    -I$(LIB_SRC)/physicalProperties/lnInclude \
    -I$(LIB_SRC)/thermophysicalModels/multicomponentThermo/lnInclude \
    -I$(LIB_SRC)/thermophysicalModels/basic/lnInclude \
    -I$(LIB_SRC)/thermophysicalModels/specie/lnInclude \
    -I$(LIB_SRC)/finiteVolume/lnInclude
#};

// Windows (PE/COFF) requires every symbol referenced by a DLL to be resolved
// against an import library at link time, whereas ELF resolves the run-time
// compiled library's symbols against the already-loaded process image at
// dlopen. Give the generated library the explicit link closure for the OpenFOAM
// libraries whose symbols it references (matching the EXE_INC above). Guarded to
// mingw so Linux keeps its empty LIB_LIBS and unchanged link behaviour.
codeLibs
#{
ifeq ($(WM_ARCH),mingw_w64)
LIB_LIBS = \
    -lfiniteVolume \
    -lfluidThermophysicalModels \
    -lmulticomponentThermophysicalModels \
    -lspecie \
    -lphysicalProperties \
    -lOpenFOAM
endif
#};


// ************************************************************************* //
