/*--------------------------------*- C++ -*----------------------------------*\
  =========                 |
  \\      /  F ield         | OpenFOAM: The Open Source CFD Toolbox
   \\    /   O peration     | Website:  https://openfoam.org
    \\  /    A nd           | Version:  13
     \\/     M anipulation  |
\*---------------------------------------------------------------------------*/
FoamFile
{
    format      ascii;
    class       dictionary;
    object      solidThermo;
}
// * * * * * * * * * * * * * * * * * * * * * * * * * * * * * * * * * * * * * //

type
(
    heSolidThermo
);

typeRenamed
(
    heSolidThermo solidThermo
);

energy
(
    sensibleInternalEnergy
);

mixture
(
    pureMixture
);

transport
(
    constIsoSolid
    constAnisoSolid
    exponentialSolid
    polynomialSolid
    tabulatedSolid
);

thermo
(
    eConst
    ePolynomial
    ePower
    eIcoTabulated
);

equationOfState
(
    rhoConst
);

specie
(
    specie
);

codeOptions
#{
EXE_INC = \
    -I$(LIB_SRC)/physicalProperties/lnInclude \
    -I$(LIB_SRC)/thermophysicalModels/specie/lnInclude \
    -I$(LIB_SRC)/thermophysicalModels/thermophysicalProperties/lnInclude \
    -I$(LIB_SRC)/thermophysicalModels/basic/lnInclude \
    -I$(LIB_SRC)/thermophysicalModels/solidThermo/lnInclude \
    -I$(LIB_SRC)/meshTools/lnInclude \
    -I$(LIB_SRC)/finiteVolume/lnInclude
#};

// Windows (PE/COFF) resolves a DLL's referenced symbols against import
// libraries at link time; ELF resolves them at dlopen from the loaded process.
// Give the generated library the link closure matching the EXE_INC above.
// Guarded to mingw so Linux keeps its empty LIB_LIBS and unchanged behaviour.
codeLibs
#{
ifeq ($(WM_ARCH),mingw_w64)
LIB_LIBS = \
    -lfiniteVolume \
    -lfluidThermophysicalModels \
    -lsolidThermo \
    -lthermophysicalProperties \
    -lspecie \
    -lphysicalProperties \
    -lmeshTools \
    -lOpenFOAM
endif
#};


// ************************************************************************* //
